# LPF package for MODFLOW-2005 generated by Flopy 3.9.3
         0    -1E+30         0  
         1
         0
   1.000000E+00
         0
         0
INTERNAL               1  (10E15.6) -1 #hk layer 1                    
   2.993428E+00   1.723471E+00   3.295377E+00   5.046060E+00   1.531693E+00   1.531726E+00   5.158426E+00   3.534869E+00   1.061051E+00   3.085120E+00
   1.073165E+00   1.068540E+00   2.483925E+00   1.000000E-01   1.000000E-01   8.754249E-01   1.000000E-01   2.628495E+00   1.839519E-01   1.000000E-01
   4.931297E+00   1.548447E+00   2.135056E+00   1.000000E-01   9.112346E-01   2.221845E+00   1.000000E-01   2.751396E+00   7.987226E-01   1.416613E+00
   7.965868E-01   5.704556E+00   1.973006E+00   1.000000E-01   3.645090E+00   1.000000E-01   2.417727E+00   1.000000E-01   1.000000E-01   2.393723E+00
   3.476933E+00   2.342736E+00   1.768703E+00   1.397793E+00   1.000000E-01   5.603116E-01   1.078722E+00   4.114244E+00   2.687237E+00   1.000000E-01
   2.648168E+00   1.229835E+00   6.461560E-01   3.223353E+00   4.061999E+00   3.862560E+00   3.215649E-01   1.381575E+00   2.662527E+00   3.951090E+00
   1.041651E+00   1.628682E+00   1.000000E-01   1.000000E-01   3.625052E+00   4.712480E+00   1.855980E+00   4.007066E+00   2.723272E+00   7.097605E-01
   2.722791E+00   5.076073E+00   1.928348E+00   5.129287E+00   1.000000E-01   3.643805E+00   2.174094E+00   1.401985E+00   2.183522E+00   1.000000E-01
   1.560656E+00   2.714225E+00   4.955788E+00   9.634596E-01   3.830128E-01   9.964859E-01   3.830804E+00   2.657502E+00   9.404796E-01   3.026535E+00
   2.194155E+00   3.937290E+00   5.958938E-01   1.344676E+00   1.215784E+00   1.000000E-01   2.592241E+00   2.522110E+00   2.010227E+00   1.530826E+00
CONSTANT    2.500000E-01                           #vka1                          
